Version 4
SHEET 1 880 680
WIRE -288 -176 -496 -176
WIRE -96 -176 -224 -176
WIRE 16 -176 -96 -176
WIRE 32 -176 16 -176
WIRE 400 -176 272 -176
WIRE 560 -176 400 -176
WIRE 400 -128 400 -176
WIRE 560 -128 560 -176
WIRE 400 -32 400 -64
WIRE 560 -32 560 -64
WIRE -496 -16 -496 -176
WIRE 144 -16 144 -80
WIRE -496 128 -496 64
WIRE -96 128 -96 -176
WIRE 16 128 -96 128
WIRE 400 128 272 128
WIRE -96 144 -96 128
WIRE 400 176 400 128
WIRE 400 288 400 240
WIRE -96 304 -96 208
WIRE 144 304 144 224
FLAG 400 -32 0
FLAG 400 288 0
FLAG 144 304 0
FLAG 144 -16 0
FLAG -96 304 0
FLAG -496 128 0
FLAG 560 -32 0
SYMBOL PowerProducts\\LT1117-3.3 144 128 R0
SYMATTR InstName U1
SYMBOL PowerProducts\\LT1117-5 144 -176 R0
SYMATTR InstName U2
SYMBOL polcap 384 -128 R0
WINDOW 3 24 56 Left 2
SYMATTR InstName C1
SYMATTR Value 47µ
SYMATTR Description Capacitor
SYMATTR Type cap
SYMATTR SpiceLine V=12.5 Irms=3.16228 Rser=0.025 Lser=0 mfg="KEMET" pn="A700D476M12RATE025" type="Al electrolytic"
SYMBOL polcap 384 176 R0
WINDOW 3 24 56 Left 2
SYMATTR InstName C2
SYMATTR Value 22µ
SYMATTR Description Capacitor
SYMATTR Type cap
SYMATTR SpiceLine V=10 Irms=354m Rser=0.2 Lser=0 mfg="KEMET" pn="T529P226M010AAE200" type="Tantalum"
SYMBOL polcap -112 144 R0
WINDOW 3 24 56 Left 2
SYMATTR InstName C3
SYMATTR Value 100µ
SYMATTR Description Capacitor
SYMATTR Type cap
SYMATTR SpiceLine V=12.5 Irms=4.33013 Rser=0.012 Lser=0 mfg="KEMET" pn="A700X107M12RATE012" type="Al electrolytic"
SYMBOL schottky -288 -160 R270
WINDOW 0 32 32 VTop 2
WINDOW 3 0 32 VBottom 2
SYMATTR InstName D2
SYMATTR Value 1N5818
SYMATTR Description Diode
SYMATTR Type diode
SYMBOL Misc\\battery -496 -32 R0
WINDOW 123 0 0 Left 2
WINDOW 39 24 132 Left 2
SYMATTR InstName V1
SYMATTR Value PULSE(6.4 8 0 0 0 0 2ms)
SYMATTR SpiceLine Rser=100m
SYMBOL polcap 544 -128 R0
WINDOW 3 24 56 Left 2
SYMATTR InstName C4
SYMATTR Value 10µ
SYMATTR Description Capacitor
SYMATTR Type cap
SYMATTR SpiceLine V=12.5 Irms=2.21565 Rser=0.055 Lser=0 mfg="KEMET" pn="A700V106M12RATE055" type="Al electrolytic"
TEXT -530 328 Left 2 !.tran 0 10ms 0 0.1ms
